ukrphil
prlhp
prl
philips
co
uk
phillips
subject
re
rumours
reply
ukrphil
prlhp
uucp
phillips
organization
philips
research
laboratories
redhill
uk
lines
exist
licensed
philips
own
variant
chip
includes
extra
featurfes
ports
bus
microcontroller
confusion
numbering
philips
products
range
core
differend
pcf
pcd