ghhwang
csie
nctu
edu
tw
ghhwang
subject
re
wp
pcf
linux
risc
organ
comput
sci
inform
eng
chiao
tung
taiwan
roc
newsread
tin
version
pl
line
dear
friend
risc
mean
reduc
instruct
set
comput
risc
usual
instruct
set
reduc
circuit
complex
increas
clock
rate
perform
read
book
comput
architectur
inform
risc
ghhwang
csie
nctu
edu
tw
form
taiwan