eugen
mpce
mq
edu
au
subject
re
wp
pcf
linux
risc
organ
macquari
univers
australia
line
nntp
post
host
macadam
mpce
mq
edu
au
origin
eugen
macadam
mpce
mq
edu
au
articl
yq
csie
nctu
edu
tw
ghhwang
csie
nctu
edu
tw
ghhwang
write
dear
friend
risc
mean
reduc
instruct
set
comput
risc
usual
instruct
set
reduc
circuit
complex
increas
clock
rate
perform
read
book
comput
architectur
inform
risc
hmm
am
author
risc
rememb
read
instruct
set
risc
cpu
differ
address
mode
risc
instruct
set
orthogon
cisc
peopl
fun
seriou
eugen
macadam
mpce
mq
edu
au