steffi
beckhau
newcastl
ac
uk
beckhau
subject
re
wp
pcf
linux
risc
nntp
post
host
ture
organ
comput
laboratori
newcastl
tyne
uk
ne
ru
line
articl
qu
ud
hd
sunb
oc
mq
edu
au
eugen
mpce
mq
edu
au
write
articl
yq
csie
nctu
edu
tw
ghhwang
csie
nctu
edu
tw
ghhwang
write
dear
friend
risc
mean
reduc
instruct
set
comput
risc
usual
instruct
set
reduc
circuit
complex
increas
clock
rate
perform
read
book
comput
architectur
inform
risc
hmm
am
author
risc
rememb
read
instruct
set
risc
cpu
differ
address
mode
risc
instruct
set
orthogon
cisc
hope
lectur
note
altern
approach
cisc
adopt
recent
risc
reduc
instruct
set
comput
characteris
simpli
simpler
faster
simplifi
design
reduc
varieti
instruct
address
mode
hardwar
design
run
faster
cost
instruct
task
quickli
simpler
faster
design
typic
risc
processor
provid
regist
perform
data
oper
regist
provid
address
mode
immedi
regist
offset
allow
load
store
oper
access
memori
instruct
format
support
data
type
integ
unsign
float
steffi
beckhau
janet
steffi
beckhau
uk
ac
newcastl
odd
million
occur
chanc