dsiegel
optima
cs
arizona
edu
seagul
subject
re
wp
pcf
linux
risc
line
risc
mean
reduc
instruct
set
comput
risc
usual
instruct
set
reduc
circuit
complex
increas
clock
rate
perform
read
book
comput
architectur
inform
risc
hmm
am
author
risc
rememb
read
instruct
set
risc
cpu
differ
address
mode
risc
instruct
set
orthogon
cisc
risc
processor
true
fewer
instruct
commonli
caus
size
execut
swell
perform
similar
larger
applic
compromis
risc
processor
actual
cross
reduc
instruct
set
complex
futur
cisc
processor
intel
prove
dave
subject
re
wp
pcf
linux
risc
newsgroup
comp
unix
do
unix
comp
sy
ibm
pc
misc
comp
sy
ibm
pc
net
comp
os
ms
window
app
comp
os
ms
window
misc
alt
uu
comp
os
linux
question
comp
app
spreadsheet
comp
misc
alt
os
linux
comp
os
linux
linux
refer
qu
ud
hd
sunb
oc
mq
edu
au
articl
qu
ud
hd
sunb
oc
mq
edu
au
eugen
mpce
mq
edu
au
articl
yq
csie
nctu
edu
tw
ghhwang
csie
nctu
edu
tw
ghhwang
write
dear
friend
risc
mean
reduc
instruct
set
comput
risc
usual
instruct
set
reduc
circuit
complex
increas
clock
rate
perform
read
book
comput
architectur
inform
risc
hmm
am
author
risc
rememb
read
instruct
set
risc
cpu
differ
address
mode
risc
instruct
set
orthogon
cisc
peopl
fun
seriou
eugen
macadam
mpce
mq
edu
au
dave
siegel
ds
presid
rtd
system
network
inc
presid
uofaz
hardwar
comput
knowledg
societi
hack
dsiegel
cs
arizona
edu
dsiegel
hack
arizona
edu
dsiegel
rtd
com