leebr
ecf
toronto
edu
lee
brian
subject
re
wp
pcf
linux
risc
organ
univers
toronto
engin
comput
facil
line
articl
qu
ud
hd
sunb
oc
mq
edu
au
eugen
mpce
mq
edu
au
write
articl
yq
csie
nctu
edu
tw
ghhwang
csie
nctu
edu
tw
ghhwang
write
dear
friend
risc
mean
reduc
instruct
set
comput
risc
usual
instruct
set
reduc
circuit
complex
increas
clock
rate
perform
read
book
comput
architectur
inform
risc
hmm
am
author
risc
rememb
read
instruct
set
risc
cpu
differ
address
mode
risc
instruct
set
orthogon
cisc
peopl
fun
seriou
eugen
macadam
mpce
mq
edu
au
theoret
suppos
reduc
argu
risc
cisc
person
cisc
win
look
pentium
intel
architectur
stori
bye
brian
hojo
lee
hey
excus
miss
gif
leebr
ecf
toronto
edu
leebr
eecg
toronto
edu
tri
linux
free
un
clone