richk
grebyn
com
richard
krehbiel
subject
re
wp
pcf
linux
risc
repli
ghhwang
csie
nctu
edu
tw
messag
sun
apr
gmt
line
organ
grebyn
timeshar
inc
articl
yq
csie
nctu
edu
tw
ghhwang
csie
nctu
edu
tw
ghhwang
write
dear
friend
risc
mean
reduc
instruct
set
comput
risc
usual
instruct
set
reduc
circuit
complex
increas
clock
rate
perform
read
book
comput
architectur
inform
risc
risc
mean
reduc
instruct
set
comput
true
acronym
familiar
risc
mean
recent
design
cpu
risc
cpu
purpos
regist
fix
instruct
size
usual
bit
instruct
memori
refer
memori
refer
align
delay
branch
branch
instruct
target
predict
bit
probabl
won
branch
instruct
complet
rel
instruct
stream
richard
krehbiel
richk
grebyn
com
os
amigado
come