dbarker
spang
camosun
bc
ca
deryk
barker
subject
re
wp
pcf
linux
risc
organ
camosun
colleg
victoria
canada
newsread
tin
pl
line
leebr
ecf
toronto
edu
lee
brian
write
articl
qu
ud
hd
sunb
oc
mq
edu
au
eugen
mpce
mq
edu
au
write
articl
yq
csie
nctu
edu
tw
ghhwang
csie
nctu
edu
tw
ghhwang
write
dear
friend
risc
mean
reduc
instruct
set
comput
risc
usual
instruct
set
reduc
circuit
complex
increas
clock
rate
perform
read
book
comput
architectur
inform
risc
hmm
am
author
risc
rememb
read
instruct
set
risc
cpu
differ
address
mode
risc
instruct
set
orthogon
cisc
origin
risc
instruct
set
simpl
one
idea
instruct
complet
singl
clock
cycl
microcod
extens
pipelin
comparison
patterson
reduc
instruct
set
comput
cacm
cpu
instruct
microcod
ibm
kb
dec
vax
kb
ibm
ucb
risc
stanford
mip
research
vlsi
vax
dec
discov
vax
microcod
support
instruct
set
account
mere
instruct
execut
uvax
subset
architectur
onto
singl
chip
softwar
emul
complex
instruct
vlsi
uvax
includ
entir
instruct
set
time
copmlex
ranm
faster
cpu
chip
microcod
transistor
uvax
vlsi
uvax
real
deryk
barker
comput
scienc
dept
camosun
colleg
victoria
email
dbarker
camosun
bc
ca
phone