angcl
nyongwa
cam
org
claud
anger
subject
re
wp
pcf
linux
risc
advert
mail
news
feed
avail
email
postmast
detail
organ
radio
free
nyongwa
public
usenet
montreal
line
articl
rx
kzp
ecf
toronto
edu
leebr
ecf
toronto
edu
lee
brian
write
articl
qu
ud
hd
sunb
oc
mq
edu
au
eugen
mpce
mq
edu
au
write
articl
yq
csie
nctu
edu
tw
ghhwang
csie
nctu
edu
tw
ghhwang
write
dear
friend
risc
mean
reduc
instruct
set
comput
risc
usual
instruct
set
reduc
circuit
complex
increas
clock
rate
perform
read
book
comput
architectur
inform
risc
hmm
am
author
risc
rememb
read
instruct
set
risc
cpu
differ
address
mode
risc
instruct
set
orthogon
cisc
theoret
suppos
reduc
argu
risc
cisc
person
cisc
win
look
pentium
intel
architectur
stori
bye
mean
pentium
risc
outsel
rememb
intel
cisc
pentium
gener
risc
risc
cpu
costli
sold
quantiti
rememb
read
mayb
hypercub
mip
superscallar
reorder
instruct