leebr
ecf
toronto
edu
lee
brian
subject
re
wp
pcf
linux
risc
organ
univers
toronto
engin
comput
facil
line
articl
jll
nyongwa
cam
org
angcl
nyongwa
cam
org
claud
anger
write
articl
rx
kzp
ecf
toronto
edu
leebr
ecf
toronto
edu
lee
brian
write
articl
qu
ud
hd
sunb
oc
mq
edu
au
eugen
mpce
mq
edu
au
write
articl
yq
csie
nctu
edu
tw
ghhwang
csie
nctu
edu
tw
ghhwang
write
dear
friend
risc
mean
reduc
instruct
set
comput
risc
usual
instruct
set
reduc
circuit
complex
increas
clock
rate
perform
read
book
comput
architectur
inform
risc
hmm
am
author
risc
rememb
read
instruct
set
risc
cpu
differ
address
mode
risc
instruct
set
orthogon
cisc
theoret
suppos
reduc
argu
risc
cisc
person
cisc
win
look
pentium
intel
architectur
stori
bye
mean
pentium
risc
outsel
rememb
intel
cisc
pentium
gener
risc
risc
cpu
costli
sold
quantiti
rememb
read
mayb
hypercub
mip
superscallar
reorder
instruct
mhz
transput
ya
tie
gazillion
mip
kick
butt
haven
seen
anyway
respond
pentium
cisc
advanc
risc
alpha
etc
mhz
pentium
approxim
perform
superdup
mhz
alpha
perform
weird
specint
refer
heard
alpha
kick
butt
fp
heard
comput
world
sell
lot
chip
intel
faster
intel
winner
intel
sucki
architectur
ago
intel
cisc
chip
superscalar
superduperpipelin
superfast
idea
risc
ideolog
cisc
chip
admit
advantag
risc
cisc
technolog
gener
suck
rel
speak
sound
intel
ll
real
kick
butt
pile
si
sio
hope
motorola
catch
line
gonna
start
cri
brian
brian
hojo
lee
hey
excus
miss
gif
leebr
ecf
toronto
edu
leebr
eecg
toronto
edu
tri
linux
free
un
clone