ghhwang
csie
nctu
edu
tw
ghhwang
subject
re
wp
pcf
linux
risc
organization
computer
sci
information
eng
chiao
tung
taiwan
roc
newsreader
tin
version
pl
lines
dear
friend
risc
means
reduced
instruction
set
computer
risc
usually
instruction
set
reduce
circuit
complex
increase
clock
rate
performance
read
books
computer
architecture
information
risc
ghhwang
csie
nctu
edu
tw
form
taiwan