eugene
mpce
mq
edu
au
subject
re
wp
pcf
linux
risc
organization
macquarie
university
australia
lines
nntp
posting
host
macadam
mpce
mq
edu
au
originator
eugene
macadam
mpce
mq
edu
au
article
yq
csie
nctu
edu
tw
ghhwang
csie
nctu
edu
tw
ghhwang
writes
dear
friend
risc
means
reduced
instruction
set
computer
risc
usually
instruction
set
reduce
circuit
complex
increase
clock
rate
performance
read
books
computer
architecture
information
risc
hmm
am
authority
risc
remember
reading
instruction
set
risc
cpus
difference
addressing
modes
risc
instruction
sets
orthogonal
cisc
people
fun
serious
eugene
macadam
mpce
mq
edu
au