steffi
beckhaus
newcastle
ac
uk
beckhaus
subject
re
wp
pcf
linux
risc
nntp
posting
host
turing
organization
computing
laboratory
newcastle
tyne
uk
ne
ru
lines
article
qu
ud
hd
sunb
ocs
mq
edu
au
eugene
mpce
mq
edu
au
writes
article
yq
csie
nctu
edu
tw
ghhwang
csie
nctu
edu
tw
ghhwang
writes
dear
friend
risc
means
reduced
instruction
set
computer
risc
usually
instruction
set
reduce
circuit
complex
increase
clock
rate
performance
read
books
computer
architecture
information
risc
hmm
am
authority
risc
remember
reading
instruction
set
risc
cpus
difference
addressing
modes
risc
instruction
sets
orthogonal
cisc
hope
lecture
notes
alternative
approach
cisc
adopted
recent
risc
reduced
instruction
set
computer
characterised
simply
simpler
faster
simplifying
design
reducing
variety
instructions
addressing
modes
hardware
designed
run
faster
cost
instructions
task
quickly
simpler
faster
design
typical
risc
processor
provide
registers
perform
data
operations
registers
provide
addressing
modes
immediate
register
offset
allow
load
store
operations
access
memory
instruction
formats
support
data
types
integer
unsigned
floating
steffi
beckhaus
janet
steffi
beckhaus
uk
ac
newcastle
odds
million
occurring
chances