dsiegel
optima
cs
arizona
edu
seagull
subject
re
wp
pcf
linux
risc
lines
risc
means
reduced
instruction
set
computer
risc
usually
instruction
set
reduce
circuit
complex
increase
clock
rate
performance
read
books
computer
architecture
information
risc
hmm
am
authority
risc
remember
reading
instruction
set
risc
cpus
difference
addressing
modes
risc
instruction
sets
orthogonal
cisc
risc
processors
true
fewer
instructions
commonly
causes
size
executables
swell
performance
similar
larger
applications
compromise
risc
processors
actually
cross
reduced
instructions
set
complex
future
cisc
processors
intel
proved
dave
subject
re
wp
pcf
linux
risc
newsgroups
comp
unix
dos
unix
comp
sys
ibm
pc
misc
comp
sys
ibm
pc
net
comp
os
ms
windows
apps
comp
os
ms
windows
misc
alt
uu
comp
os
linux
questions
comp
apps
spreadsheets
comp
misc
alt
os
linux
comp
os
linux
linux
references
qu
ud
hd
sunb
ocs
mq
edu
au
article
qu
ud
hd
sunb
ocs
mq
edu
au
eugene
mpce
mq
edu
au
article
yq
csie
nctu
edu
tw
ghhwang
csie
nctu
edu
tw
ghhwang
writes
dear
friend
risc
means
reduced
instruction
set
computer
risc
usually
instruction
set
reduce
circuit
complex
increase
clock
rate
performance
read
books
computer
architecture
information
risc
hmm
am
authority
risc
remember
reading
instruction
set
risc
cpus
difference
addressing
modes
risc
instruction
sets
orthogonal
cisc
people
fun
serious
eugene
macadam
mpce
mq
edu
au
dave
siegel
ds
president
rtd
systems
networking
inc
president
uofaz
hardware
computing
knowledge
society
hacks
dsiegel
cs
arizona
edu
dsiegel
hacks
arizona
edu
dsiegel
rtd
com