leebr
ecf
toronto
edu
lee
brian
subject
re
wp
pcf
linux
risc
organization
university
toronto
engineering
computing
facility
lines
article
qu
ud
hd
sunb
ocs
mq
edu
au
eugene
mpce
mq
edu
au
writes
article
yq
csie
nctu
edu
tw
ghhwang
csie
nctu
edu
tw
ghhwang
writes
dear
friend
risc
means
reduced
instruction
set
computer
risc
usually
instruction
set
reduce
circuit
complex
increase
clock
rate
performance
read
books
computer
architecture
information
risc
hmm
am
authority
risc
remember
reading
instruction
set
risc
cpus
difference
addressing
modes
risc
instruction
sets
orthogonal
cisc
people
fun
serious
eugene
macadam
mpce
mq
edu
au
theoretically
supposed
reduced
arguing
risc
cisc
personally
cisc
win
look
pentium
intel
architectures
story
bye
brian
hojo
lee
hey
excuse
miss
gif
leebr
ecf
toronto
edu
leebr
eecg
toronto
edu
try
linux
free
un
clone