richk
grebyn
com
richard
krehbiel
subject
re
wp
pcf
linux
risc
reply
ghhwang
csie
nctu
edu
tw
message
sun
apr
gmt
lines
organization
grebyn
timesharing
inc
article
yq
csie
nctu
edu
tw
ghhwang
csie
nctu
edu
tw
ghhwang
writes
dear
friend
risc
means
reduced
instruction
set
computer
risc
usually
instruction
set
reduce
circuit
complex
increase
clock
rate
performance
read
books
computer
architecture
information
risc
risc
mean
reduced
instruction
set
computer
true
acronym
familiar
risc
means
recently
designed
cpu
risc
cpus
purpose
registers
fixed
instruction
size
usually
bits
instruction
memory
reference
memory
references
aligned
delayed
branches
branch
instruction
target
prediction
bit
probably
won
branch
instructions
complete
relative
instruction
stream
richard
krehbiel
richk
grebyn
com
os
amigados
comes