dbarker
spang
camosun
bc
ca
deryk
barker
subject
re
wp
pcf
linux
risc
organization
camosun
college
victoria
canada
newsreader
tin
pl
lines
leebr
ecf
toronto
edu
lee
brian
writes
article
qu
ud
hd
sunb
ocs
mq
edu
au
eugene
mpce
mq
edu
au
writes
article
yq
csie
nctu
edu
tw
ghhwang
csie
nctu
edu
tw
ghhwang
writes
dear
friend
risc
means
reduced
instruction
set
computer
risc
usually
instruction
set
reduce
circuit
complex
increase
clock
rate
performance
read
books
computer
architecture
information
risc
hmm
am
authority
risc
remember
reading
instruction
set
risc
cpus
difference
addressing
modes
risc
instruction
sets
orthogonal
cisc
original
riscs
instruction
sets
simple
ones
idea
instruction
completable
single
clock
cycle
microcode
extensive
pipelines
comparisons
patterson
reduced
instruction
set
computers
cacm
cpu
instructions
microcode
ibm
kb
dec
vax
kb
ibm
ucb
risc
stanford
mips
researching
vlsi
vax
dec
discovered
vax
microcode
support
instruction
set
accounted
mere
instructions
executed
uvax
subsetted
architecture
onto
single
chip
software
emulator
complex
instructions
vlsi
uvax
included
entire
instruction
set
times
copmlex
ranm
faster
cpu
chips
microcode
transistors
uvax
vlsi
uvax
real
deryk
barker
computer
science
dept
camosun
college
victoria
email
dbarker
camosun
bc
ca
phone