angcl
nyongwa
cam
org
claude
angers
subject
re
wp
pcf
linux
risc
advert
mail
news
feeds
available
email
postmaster
details
organization
radio
free
nyongwa
public
usenet
montreal
lines
article
rx
kzp
ecf
toronto
edu
leebr
ecf
toronto
edu
lee
brian
writes
article
qu
ud
hd
sunb
ocs
mq
edu
au
eugene
mpce
mq
edu
au
writes
article
yq
csie
nctu
edu
tw
ghhwang
csie
nctu
edu
tw
ghhwang
writes
dear
friend
risc
means
reduced
instruction
set
computer
risc
usually
instruction
set
reduce
circuit
complex
increase
clock
rate
performance
read
books
computer
architecture
information
risc
hmm
am
authority
risc
remember
reading
instruction
set
risc
cpus
difference
addressing
modes
risc
instruction
sets
orthogonal
cisc
theoretically
supposed
reduced
arguing
risc
cisc
personally
cisc
win
look
pentium
intel
architectures
story
bye
mean
pentium
risc
outsell
remember
intel
cisc
pentium
generation
riscs
riscs
cpu
costly
sold
quantities
remember
reading
maybe
hypercube
mips
superscallar
reordered
instruction