leebr
ecf
toronto
edu
lee
brian
subject
re
wp
pcf
linux
risc
organization
university
toronto
engineering
computing
facility
lines
article
jll
nyongwa
cam
org
angcl
nyongwa
cam
org
claude
angers
writes
article
rx
kzp
ecf
toronto
edu
leebr
ecf
toronto
edu
lee
brian
writes
article
qu
ud
hd
sunb
ocs
mq
edu
au
eugene
mpce
mq
edu
au
writes
article
yq
csie
nctu
edu
tw
ghhwang
csie
nctu
edu
tw
ghhwang
writes
dear
friend
risc
means
reduced
instruction
set
computer
risc
usually
instruction
set
reduce
circuit
complex
increase
clock
rate
performance
read
books
computer
architecture
information
risc
hmm
am
authority
risc
remember
reading
instruction
set
risc
cpus
difference
addressing
modes
risc
instruction
sets
orthogonal
cisc
theoretically
supposed
reduced
arguing
risc
cisc
personally
cisc
win
look
pentium
intel
architectures
story
bye
mean
pentium
risc
outsell
remember
intel
cisc
pentium
generation
riscs
riscs
cpu
costly
sold
quantities
remember
reading
maybe
hypercube
mips
superscallar
reordered
instruction
mhz
transputer
ya
tie
gazillion
mips
kicks
butt
haven
seen
anyway
respond
pentium
cisc
advanced
risc
alpha
etc
mhz
pentium
approximately
performance
superduper
mhz
alpha
performance
weird
specint
refers
heard
alpha
kicks
butt
fp
heard
computing
world
sell
lots
chips
intel
faster
intel
winner
intel
sucky
architecture
ago
intel
cisc
chip
superscalar
superduperpipelined
superfast
ideas
risc
ideology
cisc
chip
admit
advantages
risc
cisc
technology
generation
sucks
relatively
speaking
sound
intel
ll
real
kick
butt
pile
si
sio
hope
motorola
catches
line
gonna
start
crying
brian
brian
hojo
lee
hey
excuse
miss
gif
leebr
ecf
toronto
edu
leebr
eecg
toronto
edu
try
linux
free
un
clone