ukrphil
prlhp
prl
philip
co
uk
phillip
subject
re
rumour
repli
ukrphil
prlhp
uucp
phillip
organ
philip
research
laboratori
redhil
uk
line
exist
licens
philip
own
variant
chip
includ
extra
featurf
port
bu
microcontrol
confus
number
philip
product
rang
core
differend
pcf
pcd